$DATA1 SOURCE='HSPICE' VERSION='J-2014.09-SP2-2 64-BIT'
.TITLE '**sram 6t ac**'
 bl_power         temper           alter#          
  1.213e-005        25.0000        1               
