***** HSPICE -- J-2014.09-SP2-2 64-BIT (Apr 17 2015) win64 ******
 Input File: test.sp
 lic:
 lic: FLEXlm: v10.9.8
 lic: USER:   Dale                 HOSTNAME: DESKTOP-J7D9945
 lic: HOSTID: "38d54701ef19 38d54701ef1a 005056c00001 005056c00008 047f0e22ff7d" PID:      21644
 lic: Using FLEXlm license file:
 lic: 27000@DESKTOP-J7D9945
 lic: Checkout 1 hspice
 lic: License/Maintenance for hspice will expire on 30-dec-2023/2019.2019
 lic: 1(in_use)/99(total) FLOATING license(s) on SERVER 27000@DESKTOP-J7D9945
 lic:
 init: begin read circuit files,  cpu clock=  4.90E-02
       option search = C:\synopsys\Hspice_J-2014.09-SP2-2\parts\behave\
       option search = C:\synopsys\Hspice_J-2014.09-SP2-2\parts\behave\
       option search = C:\synopsys\Hspice_J-2014.09-SP2-2\parts\AD\
       option search = C:\synopsys\Hspice_J-2014.09-SP2-2\parts\XILINX\
       option search = C:\synopsys\Hspice_J-2014.09-SP2-2\parts\TLINE\
       option search = C:\synopsys\Hspice_J-2014.09-SP2-2\parts\TI\
       option search = C:\synopsys\Hspice_J-2014.09-SP2-2\parts\SIGNET\
       option search = C:\synopsys\Hspice_J-2014.09-SP2-2\parts\PCI\
       option search = C:\synopsys\Hspice_J-2014.09-SP2-2\parts\LIN_TEC
                         H\
       option search = C:\synopsys\Hspice_J-2014.09-SP2-2\parts\PET\
       option search = C:\synopsys\Hspice_J-2014.09-SP2-2\parts\DI0\
       option search = C:\synopsys\Hspice_J-2014.09-SP2-2\parts\COMLINE
                         \
       option search = C:\synopsys\Hspice_J-2014.09-SP2-2\parts\BURR_BR
                         M\
       option search = C:\synopsys\Hspice_J-2014.09-SP2-2\parts\BJT\
       option search = C:\synopsys\Hspice_J-2014.09-SP2-2\parts\behave\
       option search = C:\synopsys\Hspice_J-2014.09-SP2-2\parts\AD\
       option runlvl
       option post
 init: end read circuit files,  cpu clock=  5.30E-02 peak memory=        41 mb
 init: begin check errors,  cpu clock=  5.30E-02
 init: end check errors,  cpu clock=  5.90E-02 peak memory=        43 mb
 init: begin setup matrix, pivot=     0 cpu clock=  5.90E-02
       establish matrix -- done,  cpu clock=  6.00E-02 peak memory=        43 mb
       re-order matrix -- done,  cpu clock=  6.00E-02 peak memory=        43 mb
 init: end setup matrix,  cpu clock=  6.00E-02 peak memory=        43 mb
 dcop: begin dcop,  cpu clock=  6.10E-02
 dcop: end dcop,  cpu clock=  6.20E-02 peak memory=        43 mb  tot_iter=       9
 output: test.tr0
 sweep: tran tran0    begin, stop_t=  6.00E-09 #sweeps=  61 cpu clock=  6.20E-02
 tran: time= 8.8600E-10 tot_iter=       8 conv_iter=       4 cpu clock= 6.30E-02
 tran: time= 1.3860E-09 tot_iter=      10 conv_iter=       5 cpu clock= 6.30E-02
 tran: time= 1.8860E-09 tot_iter=      12 conv_iter=       6 cpu clock= 6.30E-02
 tran: time= 2.4460E-09 tot_iter=      27 conv_iter=      13 cpu clock= 6.30E-02
 tran: time= 3.4100E-09 tot_iter=      96 conv_iter=      33 cpu clock= 6.40E-02
 tran: time= 3.9100E-09 tot_iter=      98 conv_iter=      34 cpu clock= 6.40E-02
 tran: time= 4.4100E-09 tot_iter=     100 conv_iter=      35 cpu clock= 6.40E-02
 tran: time= 4.8921E-09 tot_iter=     122 conv_iter=      43 cpu clock= 6.50E-02
 tran: time= 5.4469E-09 tot_iter=     138 conv_iter=      50 cpu clock= 6.50E-02
 tran: time= 6.0000E-09 tot_iter=     142 conv_iter=      52 cpu clock= 6.50E-02
 sweep: tran tran0    end,  cpu clock=  6.50E-02 peak memory=        43 mb
>info:         ***** hspice job concluded
 lic: Release hspice token(s)
